/*--------------------------------*- C++ -*----------------------------------*\
| =========                 |                                                 |
| \\      /  F ield         | foam-extend: Open Source CFD                    |
|  \\    /   O peration     | Version:     4.0                                |
|   \\  /    A nd           | Web:         http://www.foam-extend.org         |
|    \\/     M anipulation  |                                                 |
\*---------------------------------------------------------------------------*/
FoamFile
{
    version     2.0;
    format      ascii;
    class       dictionary;
    object      rheologyProperties;
}
// * * * * * * * * * * * * * * * * * * * * * * * * * * * * * * * * * * * * * //

planeStress     no;

//plasticityModel yamadaMises;

rheology
{
    type            linearElastic;
    rho             rho [1 -3 0 0 0 0 0] 1;    //11340; 
    E               E [1 -1 -2 0 0 0 0]  1e+4; //1e+7;  
    nu              nu [0 0 0 0 0 0 0]   0.45;  //0.435; 
	//sigmaY          sigmaY [1 -1 -2 0 0 0 0] 100e+06;
    //Ep              Ep [1 -1 -2 0 0 0 0] 0;
}


// ************************************************************************* //
