/*--------------------------------*- C++ -*----------------------------------*\
| =========                 |                                                 |
| \\      /  F ield         | foam-extend: Open Source CFD                    |
|  \\    /   O peration     | Version:     4.0                                |
|   \\  /    A nd           | Web:         http://www.foam-extend.org         |
|    \\/     M anipulation  |                                                 |
\*---------------------------------------------------------------------------*/
FoamFile
{
    version     2.0;
    format      ascii;
    class       dictionary;
    object      blockMeshDict;
}
// * * * * * * * * * * * * * * * * * * * * * * * * * * * * * * * * * * * * * //

convertToMeters 1;    //0.01

vertices
(
     (-0.25 -0.5 0.25) //(-1 -0.5 -0.05)
     (0.25 -0.5 0.25)  //(1 -0.5 -0.05)
     (0.25 -0.5 -0.25) //(-1 0 -0.05)
     (-0.25 -0.5 -0.25) //(1 0 -0.05)
     (-0.25 0 0.25)   //(-3 0.1 -0.05)
     (0.25 0 0.25)   //(-1 0.1 -0.05)
     (0.25 0 -0.25)  //(-3 0.5 -0.05)
     (-0.25 0 -0.25)  //(-1 0.5 -0.05)

     (-0.25 0.1 0.25)  //(-1 -0.5 0.05)
     (0.25 0.1 0.25)  //(1 -0.5 0.05)
     (0.25 0.1 -0.25)  //(-1 0 0.05)
     (-0.25 0.1 -0.25)  //(1 0 0.05)
     (-0.25 0.4 0.25)  //(-3 0.1 0.05)
     (0.25 0.4 0.25)  //(-1 0.1 0.05)
     (0.25 0.4 -0.25)  //(-3 0.5 0.05)
     (-0.25 0.4 -0.25)  //(-1 0.5 0.05)
	 

);

edges
(
    arc 11 10 (0 0.002 -0.25)
    arc 8 9   (0 0.002 0.25)
);

blocks
(
    hex 8(3 2 6 7 0 1 5 4) (10 10 10) simpleGrading (1 1 1)
    hex 8(11 10 14 15 8 9 13 12) (10 10 10) simpleGrading (1 1 1)
);

patches
(
	patch topBrickDown
    (
        (8 9 10 11)  //(4 5 13 12)
    )
	
    patch topBrickUp
    (
		(12 13 14 15)
		(8 11 15 12)
		(9 10 14 13)
		(11 15 14 10)
		(8 9 13 12)
		
    )
	
	patch bottomBrickUp
    (
        (0 1 2 3)  //(0 1 9 8)
		(4 5 6 7)
		(0 3 7 4)
		(1 2 6 5)
		(3 7 6 2)
		(0 1 5 4)
		
    )



    //patch bottomBrickUp
    //(
    //    (4 5 6 7)  //(2 10 11 3)
    //)

    //patch bottomBrickLeft
    //(
    //    (0 3 7 4)  //(0 8 10 2)
    //)

    //patch bottomBrickRight
    //(
    //    (1 2 6 5)  //(1 3 11 9)
    //)

    //patch topBrickLeft
    //(
    //    (8 11 15 12)  //(4 12 14 6)
    //)

    //patch topBrickRight
    //(
    //    (9 10 14 13)  //(5 7 15 13)
    //)
	

    //empty back
    //(
    //    (3 7 6 2) //(0 2 3 1)
    //    (11 15 14 10)  //(4 6 7 5)
		
    //)

    //empty front
    //(
    //    (0 1 5 4)  //(8 9 11 10)
    //    (8 9 13 12)  //(12 13 15 14)
    //)
);

// * * * * * * * * * * * * * * * * * * * * * * * * * * * * * * * * * * * * * //


// ************************************************************************* //

