/*--------------------------------*- C++ -*----------------------------------*\
| =========                 |                                                 |
| \\      /  F ield         | foam-extend: Open Source CFD                    |
|  \\    /   O peration     | Version:     4.0                                |
|   \\  /    A nd           | Web:         http://www.foam-extend.org         |
|    \\/     M anipulation  |                                                 |
\*---------------------------------------------------------------------------*/
FoamFile
{
    version     2.0;
    format      ascii;
    class       polyBoundaryMesh;
    location    "constant/polyMesh";
    object      boundary;
}
// * * * * * * * * * * * * * * * * * * * * * * * * * * * * * * * * * * * * * //

3
(
    topBrickDown
    {
        type            patch;
        nFaces          100;
        startFace       5400;
    }
    topBrickUp
    {
        type            patch;
        nFaces          500;
        startFace       5500;
    }
    bottomBrickUp
    {
        type            patch;
        nFaces          600;
        startFace       6000;
    }
)


// ************************************************************************* //
